/*--------------------------------*- C++ -*----------------------------------*\
  =========                 |
  \\      /  F ield         | OpenFOAM: The Open Source CFD Toolbox
   \\    /   O peration     | Website:  https://openfoam.org
    \\  /    A nd           | Version:  9
     \\/     M anipulation  |
\*---------------------------------------------------------------------------*/
FoamFile
{
    format      ascii;
    class       featureEdgeMesh;
    location    "constant/triSurface";
    object      test.eMesh;
}
// * * * * * * * * * * * * * * * * * * * * * * * * * * * * * * * * * * * * * //


// points:

224
(
(-0.025 0 0.025)
(0.025 0 0.025)
(-0.025 0.050000001 0.025)
(0.025 0.050000001 0.025)
(-0.025 0 -0.025)
(-0.025 0.050000001 -0.025)
(0.025 0 -0.025)
(0.025 0.050000001 -0.025)
(0.07 0.039999999 0.0040000002)
(0.07 0.039305411 0.0039392309)
(0.07 0.039305411 -0.0039392309)
(0.07 0.039999999 -0.0040000002)
(0.07 0.040694591 0.0039392309)
(0.07 0.040694591 -0.0039392309)
(0.07 0.041368078 0.0037587699)
(0.07 0.041368078 -0.0037587699)
(0.07 0.041999999 0.003464102)
(0.07 0.041999999 -0.003464102)
(0.07 0.04257115 0.0030641779)
(0.07 0.04257115 -0.0030641779)
(0.07 0.043064181 0.00257115)
(0.07 0.043064181 -0.00257115)
(0.07 0.043464102 0.0020000001)
(0.07 0.043464102 -0.0020000001)
(0.07 0.043758769 0.001368081)
(0.07 0.043758769 -0.001368081)
(0.07 0.043939229 0.00069459272)
(0.07 0.043939229 -0.00069459272)
(0.07 0.044 -2.4492939e-19)
(0.07 0.03863192 -0.0037587699)
(0.07 0.03863192 0.0037587699)
(0.07 0.037999999 -0.003464102)
(0.07 0.037999999 0.003464102)
(0.07 0.037428848 -0.0030641779)
(0.07 0.037428848 0.0030641779)
(0.07 0.036935821 -0.00257115)
(0.07 0.036935821 0.00257115)
(0.07 0.0365359 -0.0020000001)
(0.07 0.0365359 0.0020000001)
(0.07 0.03624123 -0.001368081)
(0.07 0.03624123 0.001368081)
(0.07 0.036060769 -0.00069459272)
(0.07 0.036060769 0.00069459272)
(0.07 0.035999998 -2.4492939e-19)
(-0.07 0.039999999 0.0040000002)
(-0.07 0.040694591 0.0039392309)
(-0.07 0.040694591 -0.0039392309)
(-0.07 0.039999999 -0.0040000002)
(-0.07 0.039305411 0.0039392309)
(-0.07 0.039305411 -0.0039392309)
(-0.07 0.03863192 0.0037587699)
(-0.07 0.03863192 -0.0037587699)
(-0.07 0.037999999 0.003464102)
(-0.07 0.037999999 -0.003464102)
(-0.07 0.037428848 0.0030641779)
(-0.07 0.037428848 -0.0030641779)
(-0.07 0.036935821 0.00257115)
(-0.07 0.036935821 -0.00257115)
(-0.07 0.0365359 0.0020000001)
(-0.07 0.0365359 -0.0020000001)
(-0.07 0.03624123 0.001368081)
(-0.07 0.03624123 -0.001368081)
(-0.07 0.036060769 0.00069459272)
(-0.07 0.036060769 -0.00069459272)
(-0.07 0.035999998 -2.4492939e-19)
(-0.07 0.041368078 -0.0037587699)
(-0.07 0.041368078 0.0037587699)
(-0.07 0.041999999 -0.003464102)
(-0.07 0.041999999 0.003464102)
(-0.07 0.04257115 -0.0030641779)
(-0.07 0.04257115 0.0030641779)
(-0.07 0.043064181 -0.00257115)
(-0.07 0.043064181 0.00257115)
(-0.07 0.043464102 -0.0020000001)
(-0.07 0.043464102 0.0020000001)
(-0.07 0.043758769 -0.001368081)
(-0.07 0.043758769 0.001368081)
(-0.07 0.043939229 -0.00069459272)
(-0.07 0.043939229 0.00069459272)
(-0.07 0.044 -2.4492939e-19)
(-0.0049999999 -0.039999999 6.123234e-19)
(-0.0049240389 -0.039999999 -0.0008682409)
(0.0049240389 -0.039999999 -0.0008682409)
(0.0049999999 -0.039999999 0)
(-0.0049240389 -0.039999999 0.0008682409)
(0.0049240389 -0.039999999 0.0008682409)
(-0.0046984628 -0.039999999 0.001710101)
(0.0046984628 -0.039999999 0.001710101)
(-0.004330127 -0.039999999 0.0024999999)
(0.004330127 -0.039999999 0.0024999999)
(-0.0038302219 -0.039999999 0.0032139381)
(0.0038302219 -0.039999999 0.0032139381)
(-0.0032139381 -0.039999999 0.0038302219)
(0.0032139381 -0.039999999 0.0038302219)
(-0.0024999999 -0.039999999 0.004330127)
(0.0024999999 -0.039999999 0.004330127)
(-0.001710101 -0.039999999 0.0046984628)
(0.001710101 -0.039999999 0.0046984628)
(-0.0008682409 -0.039999999 0.0049240389)
(0.0008682409 -0.039999999 0.0049240389)
(3.061617e-19 -0.039999999 0.0049999999)
(0.0046984628 -0.039999999 -0.001710101)
(-0.0046984628 -0.039999999 -0.001710101)
(0.004330127 -0.039999999 -0.0024999999)
(-0.004330127 -0.039999999 -0.0024999999)
(0.0038302219 -0.039999999 -0.0032139381)
(-0.0038302219 -0.039999999 -0.0032139381)
(0.0032139381 -0.039999999 -0.0038302219)
(-0.0032139381 -0.039999999 -0.0038302219)
(0.0024999999 -0.039999999 -0.004330127)
(-0.0024999999 -0.039999999 -0.004330127)
(0.001710101 -0.039999999 -0.0046984628)
(-0.001710101 -0.039999999 -0.0046984628)
(0.0008682409 -0.039999999 -0.0049240389)
(-0.0008682409 -0.039999999 -0.0049240389)
(3.061617e-19 -0.039999999 -0.0049999999)
(-0.025 0.039999999 0.0040000002)
(-0.025 0.040694591 0.0039392309)
(-0.025 0.039305411 0.0039392309)
(-0.025 0.03863192 0.0037587699)
(-0.025 0.037999999 0.003464102)
(-0.025 0.037428848 0.0030641779)
(-0.025 0.036935821 0.00257115)
(-0.025 0.0365359 0.0020000001)
(-0.025 0.03624123 0.001368081)
(-0.025 0.036060769 0.00069459272)
(-0.025 0.035999998 -2.4492939e-19)
(-0.025 0.036060769 -0.00069459272)
(-0.025 0.03624123 -0.001368081)
(-0.025 0.0365359 -0.0020000001)
(-0.025 0.036935821 -0.00257115)
(-0.025 0.037428848 -0.0030641779)
(-0.025 0.037999999 -0.003464102)
(-0.025 0.03863192 -0.0037587699)
(-0.025 0.039305411 -0.0039392309)
(-0.025 0.039999999 -0.0040000002)
(-0.025 0.040694591 -0.0039392309)
(-0.025 0.041368078 -0.0037587699)
(-0.025 0.041999999 -0.003464102)
(-0.025 0.04257115 -0.0030641779)
(-0.025 0.043064181 -0.00257115)
(-0.025 0.043464102 -0.0020000001)
(-0.025 0.043758769 -0.001368081)
(-0.025 0.043939229 -0.00069459272)
(-0.025 0.044 -2.4492939e-19)
(-0.025 0.043939229 0.00069459272)
(-0.025 0.043758769 0.001368081)
(-0.025 0.043464102 0.0020000001)
(-0.025 0.043064181 0.00257115)
(-0.025 0.04257115 0.0030641779)
(-0.025 0.041999999 0.003464102)
(-0.025 0.041368078 0.0037587699)
(0.025 0.039999999 0.0040000002)
(0.025 0.039305411 0.0039392309)
(0.025 0.040694591 0.0039392309)
(0.025 0.041368078 0.0037587699)
(0.025 0.041999999 0.003464102)
(0.025 0.04257115 0.0030641779)
(0.025 0.043064181 0.00257115)
(0.025 0.043464102 0.0020000001)
(0.025 0.043758769 0.001368081)
(0.025 0.043939229 0.00069459272)
(0.025 0.044 -2.4492939e-19)
(0.025 0.043939229 -0.00069459272)
(0.025 0.043758769 -0.001368081)
(0.025 0.043464102 -0.0020000001)
(0.025 0.043064181 -0.00257115)
(0.025 0.04257115 -0.0030641779)
(0.025 0.041999999 -0.003464102)
(0.025 0.041368078 -0.0037587699)
(0.025 0.040694591 -0.0039392309)
(0.025 0.039999999 -0.0040000002)
(0.025 0.039305411 -0.0039392309)
(0.025 0.03863192 -0.0037587699)
(0.025 0.037999999 -0.003464102)
(0.025 0.037428848 -0.0030641779)
(0.025 0.036935821 -0.00257115)
(0.025 0.0365359 -0.0020000001)
(0.025 0.03624123 -0.001368081)
(0.025 0.036060769 -0.00069459272)
(0.025 0.035999998 -2.4492939e-19)
(0.025 0.036060769 0.00069459272)
(0.025 0.03624123 0.001368081)
(0.025 0.0365359 0.0020000001)
(0.025 0.036935821 0.00257115)
(0.025 0.037428848 0.0030641779)
(0.025 0.037999999 0.003464102)
(0.025 0.03863192 0.0037587699)
(-0.0049999999 0 6.123234e-19)
(-0.0049240389 0 -0.0008682409)
(-0.0049240389 0 0.0008682409)
(-0.0046984628 0 0.001710101)
(-0.004330127 0 0.0024999999)
(-0.0038302219 0 0.0032139381)
(-0.0032139381 0 0.0038302219)
(-0.0024999999 0 0.004330127)
(-0.001710101 0 0.0046984628)
(-0.0008682409 0 0.0049240389)
(3.061617e-19 0 0.0049999999)
(0.0008682409 0 0.0049240389)
(0.001710101 0 0.0046984628)
(0.0024999999 0 0.004330127)
(0.0032139381 0 0.0038302219)
(0.0038302219 0 0.0032139381)
(0.004330127 0 0.0024999999)
(0.0046984628 0 0.001710101)
(0.0049240389 0 0.0008682409)
(0.0049999999 0 0)
(0.0049240389 0 -0.0008682409)
(0.0046984628 0 -0.001710101)
(0.004330127 0 -0.0024999999)
(0.0038302219 0 -0.0032139381)
(0.0032139381 0 -0.0038302219)
(0.0024999999 0 -0.004330127)
(0.001710101 0 -0.0046984628)
(0.0008682409 0 -0.0049240389)
(3.061617e-19 0 -0.0049999999)
(-0.0008682409 0 -0.0049240389)
(-0.001710101 0 -0.0046984628)
(-0.0024999999 0 -0.004330127)
(-0.0032139381 0 -0.0038302219)
(-0.0038302219 0 -0.0032139381)
(-0.004330127 0 -0.0024999999)
(-0.0046984628 0 -0.001710101)
)


// edges:

228
(
(8 9)
(10 11)
(12 8)
(11 13)
(14 12)
(13 15)
(16 14)
(15 17)
(18 16)
(17 19)
(20 18)
(19 21)
(22 20)
(21 23)
(24 22)
(23 25)
(26 24)
(25 27)
(27 28)
(28 26)
(29 10)
(9 30)
(31 29)
(30 32)
(33 31)
(32 34)
(35 33)
(34 36)
(37 35)
(36 38)
(39 37)
(38 40)
(41 39)
(40 42)
(42 43)
(43 41)
(44 45)
(46 47)
(48 44)
(47 49)
(50 48)
(49 51)
(52 50)
(51 53)
(54 52)
(53 55)
(56 54)
(55 57)
(58 56)
(57 59)
(60 58)
(59 61)
(62 60)
(61 63)
(63 64)
(64 62)
(65 46)
(45 66)
(67 65)
(66 68)
(69 67)
(68 70)
(71 69)
(70 72)
(73 71)
(72 74)
(75 73)
(74 76)
(77 75)
(76 78)
(78 79)
(79 77)
(80 81)
(82 83)
(84 80)
(83 85)
(86 84)
(85 87)
(88 86)
(87 89)
(90 88)
(89 91)
(92 90)
(91 93)
(94 92)
(93 95)
(96 94)
(95 97)
(98 96)
(97 99)
(99 100)
(100 98)
(101 82)
(81 102)
(103 101)
(102 104)
(105 103)
(104 106)
(107 105)
(106 108)
(109 107)
(108 110)
(111 109)
(110 112)
(113 111)
(112 114)
(114 115)
(115 113)
(2 0)
(0 1)
(1 3)
(3 2)
(4 0)
(5 4)
(2 5)
(7 6)
(6 4)
(5 7)
(7 3)
(1 6)
(116 117)
(118 116)
(119 118)
(120 119)
(121 120)
(122 121)
(123 122)
(124 123)
(125 124)
(126 125)
(127 126)
(128 127)
(129 128)
(130 129)
(131 130)
(132 131)
(133 132)
(134 133)
(135 134)
(136 135)
(137 136)
(138 137)
(139 138)
(140 139)
(141 140)
(142 141)
(143 142)
(144 143)
(145 144)
(146 145)
(147 146)
(148 147)
(149 148)
(150 149)
(151 150)
(117 151)
(152 153)
(154 152)
(155 154)
(156 155)
(157 156)
(158 157)
(159 158)
(160 159)
(161 160)
(162 161)
(163 162)
(164 163)
(165 164)
(166 165)
(167 166)
(168 167)
(169 168)
(170 169)
(171 170)
(172 171)
(173 172)
(174 173)
(175 174)
(176 175)
(177 176)
(178 177)
(179 178)
(180 179)
(181 180)
(182 181)
(183 182)
(184 183)
(185 184)
(186 185)
(187 186)
(153 187)
(188 189)
(190 188)
(191 190)
(192 191)
(193 192)
(194 193)
(195 194)
(196 195)
(197 196)
(198 197)
(199 198)
(200 199)
(201 200)
(202 201)
(203 202)
(204 203)
(205 204)
(206 205)
(207 206)
(208 207)
(209 208)
(210 209)
(211 210)
(212 211)
(213 212)
(214 213)
(215 214)
(216 215)
(217 216)
(218 217)
(219 218)
(220 219)
(221 220)
(222 221)
(223 222)
(189 223)
)

// * * * * * * * * * * * * * * * * * * * * * * * * * * * * * * * * * * * * * //


// ************************************************************************* //
