/*--------------------------------*- C++ -*----------------------------------*\
  =========                 |
  \\      /  F ield         | OpenFOAM: The Open Source CFD Toolbox
   \\    /   O peration     | Website:  https://openfoam.org
    \\  /    A nd           | Version:  9
     \\/     M anipulation  |
\*---------------------------------------------------------------------------*/
FoamFile
{
    format      ascii;
    class       extendedFeatureEdgeMesh;
    location    "constant/extendedFeatureEdgeMesh";
    object      test.extendedFeatureEdgeMesh;
}
// * * * * * * * * * * * * * * * * * * * * * * * * * * * * * * * * * * * * * //

// points

224
(
(-0.025 0 0.025)
(0.025 0 0.025)
(-0.025 0.050000001 0.025)
(0.025 0.050000001 0.025)
(-0.025 0 -0.025)
(-0.025 0.050000001 -0.025)
(0.025 0 -0.025)
(0.025 0.050000001 -0.025)
(0.07 0.039999999 0.0040000002)
(0.07 0.039305411 0.0039392309)
(0.07 0.039305411 -0.0039392309)
(0.07 0.039999999 -0.0040000002)
(0.07 0.040694591 0.0039392309)
(0.07 0.040694591 -0.0039392309)
(0.07 0.041368078 0.0037587699)
(0.07 0.041368078 -0.0037587699)
(0.07 0.041999999 0.003464102)
(0.07 0.041999999 -0.003464102)
(0.07 0.04257115 0.0030641779)
(0.07 0.04257115 -0.0030641779)
(0.07 0.043064181 0.00257115)
(0.07 0.043064181 -0.00257115)
(0.07 0.043464102 0.0020000001)
(0.07 0.043464102 -0.0020000001)
(0.07 0.043758769 0.001368081)
(0.07 0.043758769 -0.001368081)
(0.07 0.043939229 0.00069459272)
(0.07 0.043939229 -0.00069459272)
(0.07 0.044 -2.4492939e-19)
(0.07 0.03863192 -0.0037587699)
(0.07 0.03863192 0.0037587699)
(0.07 0.037999999 -0.003464102)
(0.07 0.037999999 0.003464102)
(0.07 0.037428848 -0.0030641779)
(0.07 0.037428848 0.0030641779)
(0.07 0.036935821 -0.00257115)
(0.07 0.036935821 0.00257115)
(0.07 0.0365359 -0.0020000001)
(0.07 0.0365359 0.0020000001)
(0.07 0.03624123 -0.001368081)
(0.07 0.03624123 0.001368081)
(0.07 0.036060769 -0.00069459272)
(0.07 0.036060769 0.00069459272)
(0.07 0.035999998 -2.4492939e-19)
(-0.07 0.039999999 0.0040000002)
(-0.07 0.040694591 0.0039392309)
(-0.07 0.040694591 -0.0039392309)
(-0.07 0.039999999 -0.0040000002)
(-0.07 0.039305411 0.0039392309)
(-0.07 0.039305411 -0.0039392309)
(-0.07 0.03863192 0.0037587699)
(-0.07 0.03863192 -0.0037587699)
(-0.07 0.037999999 0.003464102)
(-0.07 0.037999999 -0.003464102)
(-0.07 0.037428848 0.0030641779)
(-0.07 0.037428848 -0.0030641779)
(-0.07 0.036935821 0.00257115)
(-0.07 0.036935821 -0.00257115)
(-0.07 0.0365359 0.0020000001)
(-0.07 0.0365359 -0.0020000001)
(-0.07 0.03624123 0.001368081)
(-0.07 0.03624123 -0.001368081)
(-0.07 0.036060769 0.00069459272)
(-0.07 0.036060769 -0.00069459272)
(-0.07 0.035999998 -2.4492939e-19)
(-0.07 0.041368078 -0.0037587699)
(-0.07 0.041368078 0.0037587699)
(-0.07 0.041999999 -0.003464102)
(-0.07 0.041999999 0.003464102)
(-0.07 0.04257115 -0.0030641779)
(-0.07 0.04257115 0.0030641779)
(-0.07 0.043064181 -0.00257115)
(-0.07 0.043064181 0.00257115)
(-0.07 0.043464102 -0.0020000001)
(-0.07 0.043464102 0.0020000001)
(-0.07 0.043758769 -0.001368081)
(-0.07 0.043758769 0.001368081)
(-0.07 0.043939229 -0.00069459272)
(-0.07 0.043939229 0.00069459272)
(-0.07 0.044 -2.4492939e-19)
(-0.0049999999 -0.039999999 6.123234e-19)
(-0.0049240389 -0.039999999 -0.0008682409)
(0.0049240389 -0.039999999 -0.0008682409)
(0.0049999999 -0.039999999 0)
(-0.0049240389 -0.039999999 0.0008682409)
(0.0049240389 -0.039999999 0.0008682409)
(-0.0046984628 -0.039999999 0.001710101)
(0.0046984628 -0.039999999 0.001710101)
(-0.004330127 -0.039999999 0.0024999999)
(0.004330127 -0.039999999 0.0024999999)
(-0.0038302219 -0.039999999 0.0032139381)
(0.0038302219 -0.039999999 0.0032139381)
(-0.0032139381 -0.039999999 0.0038302219)
(0.0032139381 -0.039999999 0.0038302219)
(-0.0024999999 -0.039999999 0.004330127)
(0.0024999999 -0.039999999 0.004330127)
(-0.001710101 -0.039999999 0.0046984628)
(0.001710101 -0.039999999 0.0046984628)
(-0.0008682409 -0.039999999 0.0049240389)
(0.0008682409 -0.039999999 0.0049240389)
(3.061617e-19 -0.039999999 0.0049999999)
(0.0046984628 -0.039999999 -0.001710101)
(-0.0046984628 -0.039999999 -0.001710101)
(0.004330127 -0.039999999 -0.0024999999)
(-0.004330127 -0.039999999 -0.0024999999)
(0.0038302219 -0.039999999 -0.0032139381)
(-0.0038302219 -0.039999999 -0.0032139381)
(0.0032139381 -0.039999999 -0.0038302219)
(-0.0032139381 -0.039999999 -0.0038302219)
(0.0024999999 -0.039999999 -0.004330127)
(-0.0024999999 -0.039999999 -0.004330127)
(0.001710101 -0.039999999 -0.0046984628)
(-0.001710101 -0.039999999 -0.0046984628)
(0.0008682409 -0.039999999 -0.0049240389)
(-0.0008682409 -0.039999999 -0.0049240389)
(3.061617e-19 -0.039999999 -0.0049999999)
(-0.025 0.039999999 0.0040000002)
(-0.025 0.040694591 0.0039392309)
(-0.025 0.039305411 0.0039392309)
(-0.025 0.03863192 0.0037587699)
(-0.025 0.037999999 0.003464102)
(-0.025 0.037428848 0.0030641779)
(-0.025 0.036935821 0.00257115)
(-0.025 0.0365359 0.0020000001)
(-0.025 0.03624123 0.001368081)
(-0.025 0.036060769 0.00069459272)
(-0.025 0.035999998 -2.4492939e-19)
(-0.025 0.036060769 -0.00069459272)
(-0.025 0.03624123 -0.001368081)
(-0.025 0.0365359 -0.0020000001)
(-0.025 0.036935821 -0.00257115)
(-0.025 0.037428848 -0.0030641779)
(-0.025 0.037999999 -0.003464102)
(-0.025 0.03863192 -0.0037587699)
(-0.025 0.039305411 -0.0039392309)
(-0.025 0.039999999 -0.0040000002)
(-0.025 0.040694591 -0.0039392309)
(-0.025 0.041368078 -0.0037587699)
(-0.025 0.041999999 -0.003464102)
(-0.025 0.04257115 -0.0030641779)
(-0.025 0.043064181 -0.00257115)
(-0.025 0.043464102 -0.0020000001)
(-0.025 0.043758769 -0.001368081)
(-0.025 0.043939229 -0.00069459272)
(-0.025 0.044 -2.4492939e-19)
(-0.025 0.043939229 0.00069459272)
(-0.025 0.043758769 0.001368081)
(-0.025 0.043464102 0.0020000001)
(-0.025 0.043064181 0.00257115)
(-0.025 0.04257115 0.0030641779)
(-0.025 0.041999999 0.003464102)
(-0.025 0.041368078 0.0037587699)
(0.025 0.039999999 0.0040000002)
(0.025 0.039305411 0.0039392309)
(0.025 0.040694591 0.0039392309)
(0.025 0.041368078 0.0037587699)
(0.025 0.041999999 0.003464102)
(0.025 0.04257115 0.0030641779)
(0.025 0.043064181 0.00257115)
(0.025 0.043464102 0.0020000001)
(0.025 0.043758769 0.001368081)
(0.025 0.043939229 0.00069459272)
(0.025 0.044 -2.4492939e-19)
(0.025 0.043939229 -0.00069459272)
(0.025 0.043758769 -0.001368081)
(0.025 0.043464102 -0.0020000001)
(0.025 0.043064181 -0.00257115)
(0.025 0.04257115 -0.0030641779)
(0.025 0.041999999 -0.003464102)
(0.025 0.041368078 -0.0037587699)
(0.025 0.040694591 -0.0039392309)
(0.025 0.039999999 -0.0040000002)
(0.025 0.039305411 -0.0039392309)
(0.025 0.03863192 -0.0037587699)
(0.025 0.037999999 -0.003464102)
(0.025 0.037428848 -0.0030641779)
(0.025 0.036935821 -0.00257115)
(0.025 0.0365359 -0.0020000001)
(0.025 0.03624123 -0.001368081)
(0.025 0.036060769 -0.00069459272)
(0.025 0.035999998 -2.4492939e-19)
(0.025 0.036060769 0.00069459272)
(0.025 0.03624123 0.001368081)
(0.025 0.0365359 0.0020000001)
(0.025 0.036935821 0.00257115)
(0.025 0.037428848 0.0030641779)
(0.025 0.037999999 0.003464102)
(0.025 0.03863192 0.0037587699)
(-0.0049999999 0 6.123234e-19)
(-0.0049240389 0 -0.0008682409)
(-0.0049240389 0 0.0008682409)
(-0.0046984628 0 0.001710101)
(-0.004330127 0 0.0024999999)
(-0.0038302219 0 0.0032139381)
(-0.0032139381 0 0.0038302219)
(-0.0024999999 0 0.004330127)
(-0.001710101 0 0.0046984628)
(-0.0008682409 0 0.0049240389)
(3.061617e-19 0 0.0049999999)
(0.0008682409 0 0.0049240389)
(0.001710101 0 0.0046984628)
(0.0024999999 0 0.004330127)
(0.0032139381 0 0.0038302219)
(0.0038302219 0 0.0032139381)
(0.004330127 0 0.0024999999)
(0.0046984628 0 0.001710101)
(0.0049240389 0 0.0008682409)
(0.0049999999 0 0)
(0.0049240389 0 -0.0008682409)
(0.0046984628 0 -0.001710101)
(0.004330127 0 -0.0024999999)
(0.0038302219 0 -0.0032139381)
(0.0032139381 0 -0.0038302219)
(0.0024999999 0 -0.004330127)
(0.001710101 0 -0.0046984628)
(0.0008682409 0 -0.0049240389)
(3.061617e-19 0 -0.0049999999)
(-0.0008682409 0 -0.0049240389)
(-0.001710101 0 -0.0046984628)
(-0.0024999999 0 -0.004330127)
(-0.0032139381 0 -0.0038302219)
(-0.0038302219 0 -0.0032139381)
(-0.004330127 0 -0.0024999999)
(-0.0046984628 0 -0.001710101)
)

// edges

228
(
(8 9)
(10 11)
(12 8)
(11 13)
(14 12)
(13 15)
(16 14)
(15 17)
(18 16)
(17 19)
(20 18)
(19 21)
(22 20)
(21 23)
(24 22)
(23 25)
(26 24)
(25 27)
(27 28)
(28 26)
(29 10)
(9 30)
(31 29)
(30 32)
(33 31)
(32 34)
(35 33)
(34 36)
(37 35)
(36 38)
(39 37)
(38 40)
(41 39)
(40 42)
(42 43)
(43 41)
(44 45)
(46 47)
(48 44)
(47 49)
(50 48)
(49 51)
(52 50)
(51 53)
(54 52)
(53 55)
(56 54)
(55 57)
(58 56)
(57 59)
(60 58)
(59 61)
(62 60)
(61 63)
(63 64)
(64 62)
(65 46)
(45 66)
(67 65)
(66 68)
(69 67)
(68 70)
(71 69)
(70 72)
(73 71)
(72 74)
(75 73)
(74 76)
(77 75)
(76 78)
(78 79)
(79 77)
(80 81)
(82 83)
(84 80)
(83 85)
(86 84)
(85 87)
(88 86)
(87 89)
(90 88)
(89 91)
(92 90)
(91 93)
(94 92)
(93 95)
(96 94)
(95 97)
(98 96)
(97 99)
(99 100)
(100 98)
(101 82)
(81 102)
(103 101)
(102 104)
(105 103)
(104 106)
(107 105)
(106 108)
(109 107)
(108 110)
(111 109)
(110 112)
(113 111)
(112 114)
(114 115)
(115 113)
(2 0)
(0 1)
(1 3)
(3 2)
(4 0)
(5 4)
(2 5)
(7 6)
(6 4)
(5 7)
(7 3)
(1 6)
(116 117)
(118 116)
(119 118)
(120 119)
(121 120)
(122 121)
(123 122)
(124 123)
(125 124)
(126 125)
(127 126)
(128 127)
(129 128)
(130 129)
(131 130)
(132 131)
(133 132)
(134 133)
(135 134)
(136 135)
(137 136)
(138 137)
(139 138)
(140 139)
(141 140)
(142 141)
(143 142)
(144 143)
(145 144)
(146 145)
(147 146)
(148 147)
(149 148)
(150 149)
(151 150)
(117 151)
(152 153)
(154 152)
(155 154)
(156 155)
(157 156)
(158 157)
(159 158)
(160 159)
(161 160)
(162 161)
(163 162)
(164 163)
(165 164)
(166 165)
(167 166)
(168 167)
(169 168)
(170 169)
(171 170)
(172 171)
(173 172)
(174 173)
(175 174)
(176 175)
(177 176)
(178 177)
(179 178)
(180 179)
(181 180)
(182 181)
(183 182)
(184 183)
(185 184)
(186 185)
(187 186)
(153 187)
(188 189)
(190 188)
(191 190)
(192 191)
(193 192)
(194 193)
(195 194)
(196 195)
(197 196)
(198 197)
(199 198)
(200 199)
(201 200)
(202 201)
(203 202)
(204 203)
(205 204)
(206 205)
(207 206)
(208 207)
(209 208)
(210 209)
(211 210)
(212 211)
(213 212)
(214 213)
(215 214)
(216 215)
(217 216)
(218 217)
(219 218)
(220 219)
(221 220)
(222 221)
(223 222)
(189 223)
)

// concaveStart mixedStart nonFeatureStart
8 8 8
// internalStart flatStart openStart multipleStart
120 228 228 228
// normals

444
(
(1 -0 0)
(0 -0.087156743 0.99619461)
(1 0 0)
(-0 -0.087156743 -0.99619461)
(1 0 0)
(0 0.087156279 0.99619465)
(1 0 0)
(0 0.087156279 -0.99619465)
(1 0 0)
(0 0.25881968 0.96592566)
(1 0 0)
(0 0.25881968 -0.96592566)
(1 0 0)
(0 0.42261626 0.90630872)
(1 0 0)
(0 0.42261626 -0.90630872)
(1 0 0)
(0 0.57357677 0.81915181)
(1 0 0)
(0 0.57357677 -0.81915181)
(1 0 0)
(0 0.70710461 0.70710895)
(1 0 0)
(0 0.70710461 -0.70710895)
(1 0 0)
(0 0.81915363 0.57357417)
(1 0 0)
(0 0.81915363 -0.57357417)
(1 0 0)
(0 0.90630888 0.42261591)
(1 0 0)
(0 0.90630888 -0.42261591)
(1 0 0)
(0 0.96592587 0.25881889)
(1 0 0)
(0 0.96592587 -0.25881889)
(1 0 0)
(0 0.99619449 -0.087158123)
(0 0.99619449 0.087158123)
(1 0 -0)
(-0 -0.25881834 -0.96592602)
(1 0 0)
(0 -0.25881834 0.96592602)
(1 0 -0)
(-0 -0.42261626 -0.90630872)
(1 0 0)
(0 -0.42261626 0.90630872)
(1 0 -0)
(-0 -0.57357677 -0.81915181)
(1 0 0)
(0 -0.57357677 0.81915181)
(1 0 -0)
(-0 -0.70710728 -0.70710628)
(1 0 0)
(0 -0.70710728 0.70710628)
(1 0 -0)
(-0 -0.81915363 -0.57357417)
(1 0 0)
(0 -0.81915363 0.57357417)
(1 0 -0)
(-0 -0.90630684 -0.4226203)
(1 0 0)
(0 -0.90630684 0.4226203)
(1 0 -0)
(-0 -0.96592587 -0.25881889)
(1 0 0)
(0 -0.96592587 0.25881889)
(1 0 -0)
(0 -0.99619449 0.087158123)
(-0 -0.99619449 -0.087158123)
(-1 -0 -0)
(-0 0.087156279 0.99619465)
(-1 0 0)
(0 0.087156279 -0.99619465)
(-1 0 -0)
(0 -0.087156743 0.99619461)
(-1 0 0)
(0 -0.087156743 -0.99619461)
(-1 0 -0)
(0 -0.25881834 0.96592602)
(-1 0 0)
(0 -0.25881834 -0.96592602)
(-1 0 -0)
(0 -0.42261626 0.90630872)
(-1 0 0)
(0 -0.42261626 -0.90630872)
(-1 0 -0)
(0 -0.57357677 0.81915181)
(-1 0 0)
(0 -0.57357677 -0.81915181)
(-1 0 -0)
(0 -0.70710728 0.70710628)
(-1 0 0)
(0 -0.70710728 -0.70710628)
(-1 0 -0)
(0 -0.81915363 0.57357417)
(-1 0 0)
(0 -0.81915363 -0.57357417)
(-1 0 -0)
(0 -0.90630684 0.4226203)
(-1 0 0)
(0 -0.90630684 -0.4226203)
(-1 0 -0)
(0 -0.96592587 0.25881889)
(-1 0 0)
(0 -0.96592587 -0.25881889)
(-1 0 -0)
(0 -0.99619449 -0.087158123)
(0 -0.99619449 0.087158123)
(-1 0 0)
(0 0.25881968 -0.96592566)
(-1 0 0)
(-0 0.25881968 0.96592566)
(-1 0 0)
(0 0.42261626 -0.90630872)
(-1 0 0)
(-0 0.42261626 0.90630872)
(-1 0 0)
(0 0.57357677 -0.81915181)
(-1 0 0)
(-0 0.57357677 0.81915181)
(-1 0 0)
(0 0.70710461 -0.70710895)
(-1 0 0)
(-0 0.70710461 0.70710895)
(-1 0 0)
(0 0.81915363 -0.57357417)
(-1 0 0)
(-0 0.81915363 0.57357417)
(-1 0 0)
(0 0.90630888 -0.42261591)
(-1 0 0)
(-0 0.90630888 0.42261591)
(-1 0 0)
(0 0.96592587 -0.25881889)
(-1 0 0)
(-0 0.96592587 0.25881889)
(-1 0 0)
(-0 0.99619449 0.087158123)
(0 0.99619449 -0.087158123)
(0 -1 0)
(-0.99619472 -8.0051022e-18 -0.087155472)
(0 -1 0)
(0.99619472 0 -0.087155472)
(0 -1 0)
(-0.99619472 0 0.087155472)
(0 -1 0)
(0.99619472 -0 0.087155472)
(0 -1 0)
(-0.96592572 0 0.25881943)
(0 -1 0)
(0.96592572 -0 0.25881943)
(0 -1 0)
(-0.90630786 0 0.42261811)
(0 -1 0)
(0.90630786 -0 0.42261811)
(0 -1 0)
(-0.81915193 0 0.5735766)
(0 -1 0)
(0.81915193 -0 0.5735766)
(0 -1 0)
(-0.70710678 0 0.70710678)
(0 -1 0)
(0.70710678 -0 0.70710678)
(0 -1 0)
(-0.5735766 0 0.81915193)
(0 -1 0)
(0.5735766 -0 0.81915193)
(0 -1 0)
(-0.42261811 0 0.90630786)
(0 -1 0)
(0.42261811 -0 0.90630786)
(0 -1 0)
(-0.25881943 0 0.96592572)
(0 -1 0)
(0.25881943 -0 0.96592572)
(0 -1 0)
(0.087155472 -0 0.99619472)
(-0.087155472 0 0.99619472)
(-0 -1 0)
(0.96592572 0 -0.25881943)
(0 -1 0)
(-0.96592572 0 -0.25881943)
(-0 -1 0)
(0.90630786 0 -0.42261811)
(0 -1 0)
(-0.90630786 0 -0.42261811)
(-0 -1 0)
(0.81915193 0 -0.5735766)
(0 -1 0)
(-0.81915193 0 -0.5735766)
(-0 -1 0)
(0.70710678 0 -0.70710678)
(0 -1 0)
(-0.70710678 0 -0.70710678)
(-0 -1 0)
(0.5735766 0 -0.81915193)
(0 -1 0)
(-0.5735766 0 -0.81915193)
(-0 -1 0)
(0.42261811 0 -0.90630786)
(0 -1 0)
(-0.42261811 0 -0.90630786)
(-0 -1 0)
(0.25881943 0 -0.96592572)
(0 -1 0)
(-0.25881943 0 -0.96592572)
(-0 -1 0)
(-0.087155472 0 -0.99619472)
(0.087155472 0 -0.99619472)
(0 0 1)
(-1 -0 0)
(0 -1 0)
(-0 0 1)
(1 -0 0)
(0 1 0)
(-1 0 0)
(-0 -1 0)
(-1 0 0)
(-0 0 -1)
(-1 0 0)
(0 1 0)
(0 0 -1)
(1 0 0)
(0 -1 -0)
(1 0 0)
(1 0 0)
(0 -1 0)
(0 0.087156279 0.99619465)
(-1 0 0)
(0 -0.087156743 0.99619461)
(-1 0 0)
(0 -0.25881834 0.96592602)
(-1 0 0)
(0 -0.42261626 0.90630872)
(-1 -0 0)
(0 -0.57357677 0.81915181)
(-1 0 0)
(0 -0.70710728 0.70710628)
(-1 0 0)
(0 -0.81915363 0.57357417)
(-1 -0 0)
(0 -0.90630684 0.4226203)
(-1 0 0)
(0 -0.96592587 0.25881889)
(-1 0 0)
(0 -0.99619449 0.087158123)
(-1 -0 0)
(-0 -0.99619449 -0.087158123)
(-1 0 0)
(-0 -0.96592587 -0.25881889)
(-1 0 0)
(-0 -0.90630684 -0.4226203)
(-1 0 -0)
(-0 -0.81915363 -0.57357417)
(-1 0 0)
(-0 -0.70710728 -0.70710628)
(-1 0 0)
(-0 -0.57357677 -0.81915181)
(-1 0 -0)
(-0 -0.42261626 -0.90630872)
(-1 0 0)
(-0 -0.25881834 -0.96592602)
(-1 0 0)
(-0 -0.087156743 -0.99619461)
(-1 0 0)
(0 0.087156279 -0.99619465)
(-1 0 0)
(0 0.25881968 -0.96592566)
(-1 0 0)
(0 0.42261626 -0.90630872)
(-1 0 0)
(0 0.57357677 -0.81915181)
(-1 0 0)
(0 0.70710461 -0.70710895)
(-1 0 0)
(0 0.81915363 -0.57357417)
(-1 0 0)
(0 0.90630888 -0.42261591)
(-1 0 0)
(0 0.96592587 -0.25881889)
(-1 0 0)
(0 0.99619449 -0.087158123)
(-1 0 0)
(0 0.99619449 0.087158123)
(-1 0 0)
(0 0.96592587 0.25881889)
(-1 0 0)
(0 0.90630888 0.42261591)
(-1 0 0)
(0 0.81915363 0.57357417)
(-1 0 0)
(0 0.70710461 0.70710895)
(-1 0 0)
(0 0.57357677 0.81915181)
(-1 0 0)
(0 0.42261626 0.90630872)
(-1 0 0)
(0 0.25881968 0.96592566)
(-1 0 0)
(0 -0.087156743 0.99619461)
(1 0 0)
(-0 0.087156279 0.99619465)
(1 0 0)
(-0 0.25881968 0.96592566)
(1 0 0)
(-0 0.42261626 0.90630872)
(1 -0 0)
(-0 0.57357677 0.81915181)
(1 0 0)
(-0 0.70710461 0.70710895)
(1 0 0)
(-0 0.81915363 0.57357417)
(1 -0 0)
(-0 0.90630888 0.42261591)
(1 0 0)
(-0 0.96592587 0.25881889)
(1 0 0)
(-0 0.99619449 0.087158123)
(1 -0 0)
(0 0.99619449 -0.087158123)
(1 0 0)
(0 0.96592587 -0.25881889)
(1 0 0)
(0 0.90630888 -0.42261591)
(1 0 0)
(0 0.81915363 -0.57357417)
(1 0 0)
(0 0.70710461 -0.70710895)
(1 0 0)
(0 0.57357677 -0.81915181)
(1 0 0)
(0 0.42261626 -0.90630872)
(1 0 0)
(0 0.25881968 -0.96592566)
(1 0 0)
(0 0.087156279 -0.99619465)
(1 0 0)
(0 -0.087156743 -0.99619461)
(1 0 0)
(0 -0.25881834 -0.96592602)
(1 0 0)
(0 -0.42261626 -0.90630872)
(1 0 0)
(0 -0.57357677 -0.81915181)
(1 0 0)
(0 -0.70710728 -0.70710628)
(1 0 0)
(0 -0.81915363 -0.57357417)
(1 0 0)
(0 -0.90630684 -0.4226203)
(1 0 0)
(0 -0.96592587 -0.25881889)
(1 0 0)
(0 -0.99619449 -0.087158123)
(1 0 0)
(0 -0.99619449 0.087158123)
(1 0 0)
(0 -0.96592587 0.25881889)
(1 0 0)
(0 -0.90630684 0.4226203)
(1 0 -0)
(0 -0.81915363 0.57357417)
(1 0 0)
(0 -0.70710728 0.70710628)
(1 0 0)
(0 -0.57357677 0.81915181)
(1 0 -0)
(0 -0.42261626 0.90630872)
(1 0 0)
(0 -0.25881834 0.96592602)
(1 0 0)
(-0.99619472 -0 -0.087155472)
(0 -1 -0)
(-0.99619472 -8.0051022e-18 0.087155472)
(-0 -1 0)
(-0.96592572 0 0.25881943)
(-0 -1 0)
(-0.90630786 0 0.42261811)
(-0 -1 0)
(-0.81915193 0 0.5735766)
(-0 -1 0)
(-0.70710678 0 0.70710678)
(-0 -1 0)
(-0.5735766 0 0.81915193)
(-0 -1 0)
(-0.42261811 0 0.90630786)
(-0 -1 0)
(-0.25881943 0 0.96592572)
(-0 -1 0)
(-0.087155472 0 0.99619472)
(-0 -1 0)
(0.087155472 0 0.99619472)
(0 -1 0)
(0.25881943 0 0.96592572)
(0 -1 0)
(0.42261811 0 0.90630786)
(0 -1 0)
(0.5735766 0 0.81915193)
(0 -1 0)
(0.70710678 0 0.70710678)
(0 -1 0)
(0.81915193 0 0.5735766)
(0 -1 0)
(0.90630786 0 0.42261811)
(0 -1 0)
(0.96592572 0 0.25881943)
(0 -1 0)
(0.99619472 0 0.087155472)
(0 -1 0)
(0.99619472 0 -0.087155472)
(0 -1 0)
(0.96592572 0 -0.25881943)
(0 -1 0)
(0.90630786 0 -0.42261811)
(0 -1 0)
(0.81915193 0 -0.5735766)
(0 -1 0)
(0.70710678 0 -0.70710678)
(0 -1 0)
(0.5735766 0 -0.81915193)
(0 -1 0)
(0.42261811 0 -0.90630786)
(0 -1 0)
(0.25881943 0 -0.96592572)
(0 -1 0)
(0.087155472 0 -0.99619472)
(0 -1 0)
(-0.087155472 -0 -0.99619472)
(0 -1 -0)
(-0.25881943 -0 -0.96592572)
(0 -1 -0)
(-0.42261811 -0 -0.90630786)
(0 -1 -0)
(-0.5735766 -0 -0.81915193)
(0 -1 -0)
(-0.70710678 -0 -0.70710678)
(0 -1 -0)
(-0.81915193 -0 -0.5735766)
(0 -1 -0)
(-0.90630786 -0 -0.42261811)
(0 -1 -0)
(-0.96592572 -0 -0.25881943)
(0 -1 -0)
)

// normal volume types

444
(
0
0
0
0
0
0
0
0
0
0
0
0
0
0
0
0
0
0
0
0
0
0
0
0
0
0
0
0
0
0
0
0
0
0
0
0
0
0
0
0
0
0
0
0
0
0
0
0
0
0
0
0
0
0
0
0
0
0
0
0
0
0
0
0
0
0
0
0
0
0
0
0
0
0
0
0
0
0
0
0
0
0
0
0
0
0
0
0
0
0
0
0
0
0
0
0
0
0
0
0
0
0
0
0
0
0
0
0
0
0
0
0
0
0
0
0
0
0
0
0
0
0
0
0
0
0
0
0
0
0
0
0
0
0
0
0
0
0
0
0
0
0
0
0
0
0
0
0
0
0
0
0
0
0
0
0
0
0
0
0
0
0
0
0
0
0
0
0
0
0
0
0
0
0
0
0
0
0
0
0
0
0
0
0
0
0
0
0
0
0
0
0
0
0
0
0
0
0
0
0
0
0
0
0
0
0
0
0
0
0
0
0
0
0
0
0
0
0
0
0
0
0
0
0
0
0
0
0
0
0
0
0
0
0
0
0
0
0
0
0
0
0
0
0
0
0
0
0
0
0
0
0
0
0
0
0
0
0
0
0
0
0
0
0
0
0
0
0
0
0
0
0
0
0
0
0
0
0
0
0
0
0
0
0
0
0
0
0
0
0
0
0
0
0
0
0
0
0
0
0
0
0
0
0
0
0
0
0
0
0
0
0
0
0
0
0
0
0
0
0
0
0
0
0
0
0
0
0
0
0
0
0
0
0
0
0
0
0
0
0
0
0
0
0
0
0
0
0
0
0
0
0
0
0
0
0
0
0
0
0
0
0
0
0
0
0
0
0
0
0
0
0
0
0
0
0
0
0
0
0
0
0
0
0
0
0
0
0
0
0
0
0
0
0
0
0
0
0
0
0
0
0
0
0
0
0
0
0
0
0
0
0
0
0
0
0
0
0
0
0
0
0
0
0
0
0
0
0
0
0
0
0
0
0
0
0
0
0
0
0
0
0
0
0
)

// normalDirections

228
(
2(1 -1)
2(1 -1)
2(1 -1)
2(1 -1)
2(1 -1)
2(1 -1)
2(1 -1)
2(1 -1)
2(1 -1)
2(1 -1)
2(1 -1)
2(1 -1)
2(1 -1)
2(1 -1)
2(1 -1)
2(1 -1)
2(1 -1)
2(1 -1)
2(1 -1)
2(1 -1)
2(1 -1)
2(1 -1)
2(1 -1)
2(1 -1)
2(1 -1)
2(1 -1)
2(1 -1)
2(1 -1)
2(1 -1)
2(1 -1)
2(1 -1)
2(1 -1)
2(1 -1)
2(1 -1)
2(1 -1)
2(1 -1)
2(1 -1)
2(1 -1)
2(1 -1)
2(1 -1)
2(1 -1)
2(1 -1)
2(1 -1)
2(1 -1)
2(1 -1)
2(1 -1)
2(1 -1)
2(1 -1)
2(1 -1)
2(1 -1)
2(1 -1)
2(1 -1)
2(1 -1)
2(1 -1)
2(1 -1)
2(1 -1)
2(1 -1)
2(1 -1)
2(1 -1)
2(1 -1)
2(1 -1)
2(1 -1)
2(1 -1)
2(1 -1)
2(1 -1)
2(1 -1)
2(1 -1)
2(1 -1)
2(1 -1)
2(1 -1)
2(1 -1)
2(1 -1)
2(1 -1)
2(1 -1)
2(1 -1)
2(1 -1)
2(1 -1)
2(1 -1)
2(1 -1)
2(1 -1)
2(1 -1)
2(1 -1)
2(1 -1)
2(1 -1)
2(1 -1)
2(1 -1)
2(1 -1)
2(1 -1)
2(1 -1)
2(1 -1)
2(1 -1)
2(1 -1)
2(1 -1)
2(1 -1)
2(1 -1)
2(1 -1)
2(1 -1)
2(1 -1)
2(1 -1)
2(1 -1)
2(1 -1)
2(1 -1)
2(1 -1)
2(1 -1)
2(1 -1)
2(1 -1)
2(1 -1)
2(1 -1)
2(1 -1)
2(1 -1)
2(1 -1)
2(1 -1)
2(1 -1)
2(1 -1)
2(1 -1)
2(1 -1)
2(1 -1)
2(1 -1)
2(1 -1)
2(1 -1)
2(1 -1)
2(1 -1)
2(1 -1)
2(1 -1)
2(1 -1)
2(1 -1)
2(1 -1)
2(1 -1)
2(1 -1)
2(1 -1)
2(1 -1)
2(1 -1)
2(1 -1)
2(1 -1)
2(1 -1)
2(1 -1)
2(1 -1)
2(1 -1)
2(1 -1)
2(1 -1)
2(1 -1)
2(1 -1)
2(1 -1)
2(1 -1)
2(1 -1)
2(1 -1)
2(1 -1)
2(1 -1)
2(1 -1)
2(1 -1)
2(1 -1)
2(1 -1)
2(1 -1)
2(1 -1)
2(1 -1)
2(1 -1)
2(1 -1)
2(1 -1)
2(1 -1)
2(1 -1)
2(1 -1)
2(1 -1)
2(1 -1)
2(1 -1)
2(1 -1)
2(1 -1)
2(1 -1)
2(1 -1)
2(1 -1)
2(1 -1)
2(1 -1)
2(1 -1)
2(1 -1)
2(1 -1)
2(1 -1)
2(1 -1)
2(1 -1)
2(1 -1)
2(1 -1)
2(1 -1)
2(1 -1)
2(1 -1)
2(1 -1)
2(1 -1)
2(1 -1)
2(1 -1)
2(1 -1)
2(1 -1)
2(1 -1)
2(1 -1)
2(1 -1)
2(1 -1)
2(1 -1)
2(1 -1)
2(1 -1)
2(1 -1)
2(1 -1)
2(1 -1)
2(1 -1)
2(1 -1)
2(1 -1)
2(1 -1)
2(1 -1)
2(1 -1)
2(1 -1)
2(1 -1)
2(1 -1)
2(1 -1)
2(1 -1)
2(1 -1)
2(1 -1)
2(1 -1)
2(1 -1)
2(1 -1)
2(1 -1)
2(1 -1)
2(1 -1)
2(1 -1)
2(1 -1)
2(1 -1)
2(1 -1)
2(1 -1)
2(1 -1)
2(1 -1)
2(1 -1)
2(1 -1)
2(1 -1)
2(1 -1)
)

// edgeNormals

228
(
2(0 1)
2(2 3)
2(4 5)
2(6 7)
2(8 9)
2(10 11)
2(12 13)
2(14 15)
2(16 17)
2(18 19)
2(20 21)
2(22 23)
2(24 25)
2(26 27)
2(28 29)
2(30 31)
2(32 33)
2(34 35)
2(36 37)
2(36 38)
2(39 40)
2(41 42)
2(43 44)
2(45 46)
2(47 48)
2(49 50)
2(51 52)
2(53 54)
2(55 56)
2(57 58)
2(59 60)
2(61 62)
2(63 64)
2(65 66)
2(67 68)
2(67 69)
2(70 71)
2(72 73)
2(74 75)
2(76 77)
2(78 79)
2(80 81)
2(82 83)
2(84 85)
2(86 87)
2(88 89)
2(90 91)
2(92 93)
2(94 95)
2(96 97)
2(98 99)
2(100 101)
2(102 103)
2(104 105)
2(106 107)
2(106 108)
2(109 110)
2(111 112)
2(113 114)
2(115 116)
2(117 118)
2(119 120)
2(121 122)
2(123 124)
2(125 126)
2(127 128)
2(129 130)
2(131 132)
2(133 134)
2(135 136)
2(137 138)
2(137 139)
2(140 141)
2(142 143)
2(144 145)
2(146 147)
2(148 149)
2(150 151)
2(152 153)
2(154 155)
2(156 157)
2(158 159)
2(160 161)
2(162 163)
2(164 165)
2(166 167)
2(168 169)
2(170 171)
2(172 173)
2(174 175)
2(176 177)
2(176 178)
2(179 180)
2(181 182)
2(183 184)
2(185 186)
2(187 188)
2(189 190)
2(191 192)
2(193 194)
2(195 196)
2(197 198)
2(199 200)
2(201 202)
2(203 204)
2(205 206)
2(207 208)
2(207 209)
2(210 211)
2(210 212)
2(213 214)
2(213 215)
2(216 217)
2(218 219)
2(220 221)
2(222 223)
2(222 224)
2(219 221)
2(225 215)
2(226 227)
2(228 229)
2(230 231)
2(232 233)
2(234 235)
2(236 237)
2(238 239)
2(240 241)
2(242 243)
2(244 245)
2(246 247)
2(248 249)
2(250 251)
2(252 253)
2(254 255)
2(256 257)
2(258 259)
2(260 261)
2(262 263)
2(264 265)
2(266 267)
2(268 269)
2(270 271)
2(272 273)
2(274 275)
2(276 277)
2(278 279)
2(280 281)
2(282 283)
2(284 285)
2(286 287)
2(288 289)
2(290 291)
2(292 293)
2(294 295)
2(296 297)
2(298 299)
2(300 301)
2(302 303)
2(304 305)
2(306 307)
2(308 309)
2(310 311)
2(312 313)
2(314 315)
2(316 317)
2(318 319)
2(320 321)
2(322 323)
2(324 325)
2(326 327)
2(328 329)
2(330 331)
2(332 333)
2(334 335)
2(336 337)
2(338 339)
2(340 341)
2(342 343)
2(344 345)
2(346 347)
2(348 349)
2(350 351)
2(352 353)
2(354 355)
2(356 357)
2(358 359)
2(360 361)
2(362 363)
2(364 365)
2(366 367)
2(368 369)
2(370 371)
2(372 373)
2(374 375)
2(376 377)
2(378 379)
2(380 381)
2(382 383)
2(384 385)
2(386 387)
2(388 389)
2(390 391)
2(392 393)
2(394 395)
2(396 397)
2(398 399)
2(400 401)
2(402 403)
2(404 405)
2(406 407)
2(408 409)
2(410 411)
2(412 413)
2(414 415)
2(416 417)
2(418 419)
2(420 421)
2(422 423)
2(424 425)
2(426 427)
2(428 429)
2(430 431)
2(432 433)
2(434 435)
2(436 437)
2(438 439)
2(440 441)
2(442 443)
)

// featurePointNormals

8
(
3(210 211 212)
3(210 212 214)
3(210 211 215)
3(213 214 215)
3(216 217 219)
3(218 219 221)
3(222 223 224)
3(222 223 221)
)

// featurePointEdges

8
(
3(108 112 109)
3(110 119 109)
3(111 114 108)
3(110 118 111)
3(113 116 112)
3(114 117 113)
3(115 119 116)
3(117 118 115)
)

// regionEdges
0()


// ************************************************************************* //
