FoamFile
{
    format      ascii;
    class       volScalarField;
    object      KsiVar;
}
// * * * * * * * * * * * * * * * * * * * * * * * * * * * * * * * * * * * * * //

dimensions      [0 0 0 0 0 0 0];

internalField   uniform 0.0;

boundaryField
{
    input1
    {
        type            fixedValue;
        value           uniform 0;
    }
    input2
    {
        type            fixedValue;
        value           uniform 0;
    }
    output
    {
        type            zeroGradient;
    }
    test
    {
        type            zeroGradient;
    }

}